# generated using pymatgen
data_H2Pt27O
_symmetry_space_group_name_H-M   'P 1'
_cell_length_a   8.32215184
_cell_length_b   8.32215184
_cell_length_c   22.70658288
_cell_angle_alpha   86.49792301
_cell_angle_beta   86.49792301
_cell_angle_gamma   60.00000000
_symmetry_Int_Tables_number   1
_chemical_formula_structural   H2Pt27O
_chemical_formula_sum   'H2 Pt27 O1'
_cell_volume   1358.53444293
_cell_formula_units_Z   1
loop_
 _symmetry_equiv_pos_site_id
 _symmetry_equiv_pos_as_xyz
  1  'x, y, z'
loop_
 _atom_site_type_symbol
 _atom_site_label
 _atom_site_symmetry_multiplicity
 _atom_site_fract_x
 _atom_site_fract_y
 _atom_site_fract_z
 _atom_site_occupancy
  Pt  Pt0  1  0.33333333  0.10000000  0.40000000  1.0
  Pt  Pt1  1  0.33333333  0.43333333  0.40000000  1.0
  Pt  Pt2  1  0.33333333  0.76666667  0.40000000  1.0
  Pt  Pt3  1  0.66666667  0.10000000  0.40000000  1.0
  Pt  Pt4  1  0.66666667  0.43333333  0.40000000  1.0
  Pt  Pt5  1  0.66666667  0.76666667  0.40000000  1.0
  Pt  Pt6  1  0.00000000  0.10000000  0.40000000  1.0
  Pt  Pt7  1  0.00000000  0.43333333  0.40000000  1.0
  Pt  Pt8  1  0.00000000  0.76666667  0.40000000  1.0
  Pt  Pt9  1  0.10000000  0.20000000  0.50000000  1.0
  Pt  Pt10  1  0.10000000  0.53333333  0.50000000  1.0
  Pt  Pt11  1  0.10000000  0.86666667  0.50000000  1.0
  Pt  Pt12  1  0.43333333  0.20000000  0.50000000  1.0
  Pt  Pt13  1  0.43333333  0.53333333  0.50000000  1.0
  Pt  Pt14  1  0.43333333  0.86666667  0.50000000  1.0
  Pt  Pt15  1  0.76666667  0.20000000  0.50000000  1.0
  Pt  Pt16  1  0.76666667  0.53333333  0.50000000  1.0
  Pt  Pt17  1  0.76666667  0.86666667  0.50000000  1.0
  Pt  Pt18  1  0.20000000  0.30000000  0.60000000  1.0
  Pt  Pt19  1  0.20000000  0.63333333  0.60000000  1.0
  Pt  Pt20  1  0.20000000  0.96666667  0.60000000  1.0
  Pt  Pt21  1  0.53333333  0.30000000  0.60000000  1.0
  Pt  Pt22  1  0.53333333  0.63333333  0.60000000  1.0
  Pt  Pt23  1  0.53333333  0.96666667  0.60000000  1.0
  Pt  Pt24  1  0.86666667  0.30000000  0.60000000  1.0
  Pt  Pt25  1  0.86666667  0.63333333  0.60000000  1.0
  Pt  Pt26  1  0.86666667  0.96666667  0.60000000  1.0
  O  O27  1  0.44495066  0.54820579  0.85839072  1
  H  H28  1  0.56030544  0.54820579  0.85839072  1
  H  H29  1  0.34267395  0.67585601  0.85839072  1
