# generated using pymatgen
data_Pt
_symmetry_space_group_name_H-M   'P 1'
_cell_length_a   27.74050613
_cell_length_b   27.74050613
_cell_length_c   22.70658288
_cell_angle_alpha   86.49792301
_cell_angle_beta   86.49792301
_cell_angle_gamma   60.00000000
_symmetry_Int_Tables_number   1
_chemical_formula_structural   Pt
_chemical_formula_sum   Pt300
_cell_volume   15094.82714085
_cell_formula_units_Z   300
loop_
 _symmetry_equiv_pos_site_id
 _symmetry_equiv_pos_as_xyz
  1  'x, y, z'
loop_
 _atom_site_type_symbol
 _atom_site_label
 _atom_site_symmetry_multiplicity
 _atom_site_fract_x
 _atom_site_fract_y
 _atom_site_fract_z
 _atom_site_occupancy
  Pt  Pt0  1  0.10000000  0.03000000  0.40000000  1
  Pt  Pt1  1  0.10000000  0.13000000  0.40000000  1
  Pt  Pt2  1  0.10000000  0.23000000  0.40000000  1
  Pt  Pt3  1  0.10000000  0.33000000  0.40000000  1
  Pt  Pt4  1  0.10000000  0.43000000  0.40000000  1
  Pt  Pt5  1  0.10000000  0.53000000  0.40000000  1
  Pt  Pt6  1  0.10000000  0.63000000  0.40000000  1
  Pt  Pt7  1  0.10000000  0.73000000  0.40000000  1
  Pt  Pt8  1  0.10000000  0.83000000  0.40000000  1
  Pt  Pt9  1  0.10000000  0.93000000  0.40000000  1
  Pt  Pt10  1  0.20000000  0.03000000  0.40000000  1
  Pt  Pt11  1  0.20000000  0.13000000  0.40000000  1
  Pt  Pt12  1  0.20000000  0.23000000  0.40000000  1
  Pt  Pt13  1  0.20000000  0.33000000  0.40000000  1
  Pt  Pt14  1  0.20000000  0.43000000  0.40000000  1
  Pt  Pt15  1  0.20000000  0.53000000  0.40000000  1
  Pt  Pt16  1  0.20000000  0.63000000  0.40000000  1
  Pt  Pt17  1  0.20000000  0.73000000  0.40000000  1
  Pt  Pt18  1  0.20000000  0.83000000  0.40000000  1
  Pt  Pt19  1  0.20000000  0.93000000  0.40000000  1
  Pt  Pt20  1  0.30000000  0.03000000  0.40000000  1
  Pt  Pt21  1  0.30000000  0.13000000  0.40000000  1
  Pt  Pt22  1  0.30000000  0.23000000  0.40000000  1
  Pt  Pt23  1  0.30000000  0.33000000  0.40000000  1
  Pt  Pt24  1  0.30000000  0.43000000  0.40000000  1
  Pt  Pt25  1  0.30000000  0.53000000  0.40000000  1
  Pt  Pt26  1  0.30000000  0.63000000  0.40000000  1
  Pt  Pt27  1  0.30000000  0.73000000  0.40000000  1
  Pt  Pt28  1  0.30000000  0.83000000  0.40000000  1
  Pt  Pt29  1  0.30000000  0.93000000  0.40000000  1
  Pt  Pt30  1  0.40000000  0.03000000  0.40000000  1
  Pt  Pt31  1  0.40000000  0.13000000  0.40000000  1
  Pt  Pt32  1  0.40000000  0.23000000  0.40000000  1
  Pt  Pt33  1  0.40000000  0.33000000  0.40000000  1
  Pt  Pt34  1  0.40000000  0.43000000  0.40000000  1
  Pt  Pt35  1  0.40000000  0.53000000  0.40000000  1
  Pt  Pt36  1  0.40000000  0.63000000  0.40000000  1
  Pt  Pt37  1  0.40000000  0.73000000  0.40000000  1
  Pt  Pt38  1  0.40000000  0.83000000  0.40000000  1
  Pt  Pt39  1  0.40000000  0.93000000  0.40000000  1
  Pt  Pt40  1  0.50000000  0.03000000  0.40000000  1
  Pt  Pt41  1  0.50000000  0.13000000  0.40000000  1
  Pt  Pt42  1  0.50000000  0.23000000  0.40000000  1
  Pt  Pt43  1  0.50000000  0.33000000  0.40000000  1
  Pt  Pt44  1  0.50000000  0.43000000  0.40000000  1
  Pt  Pt45  1  0.50000000  0.53000000  0.40000000  1
  Pt  Pt46  1  0.50000000  0.63000000  0.40000000  1
  Pt  Pt47  1  0.50000000  0.73000000  0.40000000  1
  Pt  Pt48  1  0.50000000  0.83000000  0.40000000  1
  Pt  Pt49  1  0.50000000  0.93000000  0.40000000  1
  Pt  Pt50  1  0.60000000  0.03000000  0.40000000  1
  Pt  Pt51  1  0.60000000  0.13000000  0.40000000  1
  Pt  Pt52  1  0.60000000  0.23000000  0.40000000  1
  Pt  Pt53  1  0.60000000  0.33000000  0.40000000  1
  Pt  Pt54  1  0.60000000  0.43000000  0.40000000  1
  Pt  Pt55  1  0.60000000  0.53000000  0.40000000  1
  Pt  Pt56  1  0.60000000  0.63000000  0.40000000  1
  Pt  Pt57  1  0.60000000  0.73000000  0.40000000  1
  Pt  Pt58  1  0.60000000  0.83000000  0.40000000  1
  Pt  Pt59  1  0.60000000  0.93000000  0.40000000  1
  Pt  Pt60  1  0.70000000  0.03000000  0.40000000  1
  Pt  Pt61  1  0.70000000  0.13000000  0.40000000  1
  Pt  Pt62  1  0.70000000  0.23000000  0.40000000  1
  Pt  Pt63  1  0.70000000  0.33000000  0.40000000  1
  Pt  Pt64  1  0.70000000  0.43000000  0.40000000  1
  Pt  Pt65  1  0.70000000  0.53000000  0.40000000  1
  Pt  Pt66  1  0.70000000  0.63000000  0.40000000  1
  Pt  Pt67  1  0.70000000  0.73000000  0.40000000  1
  Pt  Pt68  1  0.70000000  0.83000000  0.40000000  1
  Pt  Pt69  1  0.70000000  0.93000000  0.40000000  1
  Pt  Pt70  1  0.80000000  0.03000000  0.40000000  1
  Pt  Pt71  1  0.80000000  0.13000000  0.40000000  1
  Pt  Pt72  1  0.80000000  0.23000000  0.40000000  1
  Pt  Pt73  1  0.80000000  0.33000000  0.40000000  1
  Pt  Pt74  1  0.80000000  0.43000000  0.40000000  1
  Pt  Pt75  1  0.80000000  0.53000000  0.40000000  1
  Pt  Pt76  1  0.80000000  0.63000000  0.40000000  1
  Pt  Pt77  1  0.80000000  0.73000000  0.40000000  1
  Pt  Pt78  1  0.80000000  0.83000000  0.40000000  1
  Pt  Pt79  1  0.80000000  0.93000000  0.40000000  1
  Pt  Pt80  1  0.90000000  0.03000000  0.40000000  1
  Pt  Pt81  1  0.90000000  0.13000000  0.40000000  1
  Pt  Pt82  1  0.90000000  0.23000000  0.40000000  1
  Pt  Pt83  1  0.90000000  0.33000000  0.40000000  1
  Pt  Pt84  1  0.90000000  0.43000000  0.40000000  1
  Pt  Pt85  1  0.90000000  0.53000000  0.40000000  1
  Pt  Pt86  1  0.90000000  0.63000000  0.40000000  1
  Pt  Pt87  1  0.90000000  0.73000000  0.40000000  1
  Pt  Pt88  1  0.90000000  0.83000000  0.40000000  1
  Pt  Pt89  1  0.90000000  0.93000000  0.40000000  1
  Pt  Pt90  1  0.00000000  0.03000000  0.40000000  1
  Pt  Pt91  1  0.00000000  0.13000000  0.40000000  1
  Pt  Pt92  1  0.00000000  0.23000000  0.40000000  1
  Pt  Pt93  1  1.00000000  0.33000000  0.40000000  1
  Pt  Pt94  1  0.00000000  0.43000000  0.40000000  1
  Pt  Pt95  1  1.00000000  0.53000000  0.40000000  1
  Pt  Pt96  1  1.00000000  0.63000000  0.40000000  1
  Pt  Pt97  1  0.00000000  0.73000000  0.40000000  1
  Pt  Pt98  1  1.00000000  0.83000000  0.40000000  1
  Pt  Pt99  1  1.00000000  0.93000000  0.40000000  1
  Pt  Pt100  1  0.03000000  0.06000000  0.50000000  1
  Pt  Pt101  1  0.03000000  0.16000000  0.50000000  1
  Pt  Pt102  1  0.03000000  0.26000000  0.50000000  1
  Pt  Pt103  1  0.03000000  0.36000000  0.50000000  1
  Pt  Pt104  1  0.03000000  0.46000000  0.50000000  1
  Pt  Pt105  1  0.03000000  0.56000000  0.50000000  1
  Pt  Pt106  1  0.03000000  0.66000000  0.50000000  1
  Pt  Pt107  1  0.03000000  0.76000000  0.50000000  1
  Pt  Pt108  1  0.03000000  0.86000000  0.50000000  1
  Pt  Pt109  1  0.03000000  0.96000000  0.50000000  1
  Pt  Pt110  1  0.13000000  0.06000000  0.50000000  1
  Pt  Pt111  1  0.13000000  0.16000000  0.50000000  1
  Pt  Pt112  1  0.13000000  0.26000000  0.50000000  1
  Pt  Pt113  1  0.13000000  0.36000000  0.50000000  1
  Pt  Pt114  1  0.13000000  0.46000000  0.50000000  1
  Pt  Pt115  1  0.13000000  0.56000000  0.50000000  1
  Pt  Pt116  1  0.13000000  0.66000000  0.50000000  1
  Pt  Pt117  1  0.13000000  0.76000000  0.50000000  1
  Pt  Pt118  1  0.13000000  0.86000000  0.50000000  1
  Pt  Pt119  1  0.13000000  0.96000000  0.50000000  1
  Pt  Pt120  1  0.23000000  0.06000000  0.50000000  1
  Pt  Pt121  1  0.23000000  0.16000000  0.50000000  1
  Pt  Pt122  1  0.23000000  0.26000000  0.50000000  1
  Pt  Pt123  1  0.23000000  0.36000000  0.50000000  1
  Pt  Pt124  1  0.23000000  0.46000000  0.50000000  1
  Pt  Pt125  1  0.23000000  0.56000000  0.50000000  1
  Pt  Pt126  1  0.23000000  0.66000000  0.50000000  1
  Pt  Pt127  1  0.23000000  0.76000000  0.50000000  1
  Pt  Pt128  1  0.23000000  0.86000000  0.50000000  1
  Pt  Pt129  1  0.23000000  0.96000000  0.50000000  1
  Pt  Pt130  1  0.33000000  0.06000000  0.50000000  1
  Pt  Pt131  1  0.33000000  0.16000000  0.50000000  1
  Pt  Pt132  1  0.33000000  0.26000000  0.50000000  1
  Pt  Pt133  1  0.33000000  0.36000000  0.50000000  1
  Pt  Pt134  1  0.33000000  0.46000000  0.50000000  1
  Pt  Pt135  1  0.33000000  0.56000000  0.50000000  1
  Pt  Pt136  1  0.33000000  0.66000000  0.50000000  1
  Pt  Pt137  1  0.33000000  0.76000000  0.50000000  1
  Pt  Pt138  1  0.33000000  0.86000000  0.50000000  1
  Pt  Pt139  1  0.33000000  0.96000000  0.50000000  1
  Pt  Pt140  1  0.43000000  0.06000000  0.50000000  1
  Pt  Pt141  1  0.43000000  0.16000000  0.50000000  1
  Pt  Pt142  1  0.43000000  0.26000000  0.50000000  1
  Pt  Pt143  1  0.43000000  0.36000000  0.50000000  1
  Pt  Pt144  1  0.43000000  0.46000000  0.50000000  1
  Pt  Pt145  1  0.43000000  0.56000000  0.50000000  1
  Pt  Pt146  1  0.43000000  0.66000000  0.50000000  1
  Pt  Pt147  1  0.43000000  0.76000000  0.50000000  1
  Pt  Pt148  1  0.43000000  0.86000000  0.50000000  1
  Pt  Pt149  1  0.43000000  0.96000000  0.50000000  1
  Pt  Pt150  1  0.53000000  0.06000000  0.50000000  1
  Pt  Pt151  1  0.53000000  0.16000000  0.50000000  1
  Pt  Pt152  1  0.53000000  0.26000000  0.50000000  1
  Pt  Pt153  1  0.53000000  0.36000000  0.50000000  1
  Pt  Pt154  1  0.53000000  0.46000000  0.50000000  1
  Pt  Pt155  1  0.53000000  0.56000000  0.50000000  1
  Pt  Pt156  1  0.53000000  0.66000000  0.50000000  1
  Pt  Pt157  1  0.53000000  0.76000000  0.50000000  1
  Pt  Pt158  1  0.53000000  0.86000000  0.50000000  1
  Pt  Pt159  1  0.53000000  0.96000000  0.50000000  1
  Pt  Pt160  1  0.63000000  0.06000000  0.50000000  1
  Pt  Pt161  1  0.63000000  0.16000000  0.50000000  1
  Pt  Pt162  1  0.63000000  0.26000000  0.50000000  1
  Pt  Pt163  1  0.63000000  0.36000000  0.50000000  1
  Pt  Pt164  1  0.63000000  0.46000000  0.50000000  1
  Pt  Pt165  1  0.63000000  0.56000000  0.50000000  1
  Pt  Pt166  1  0.63000000  0.66000000  0.50000000  1
  Pt  Pt167  1  0.63000000  0.76000000  0.50000000  1
  Pt  Pt168  1  0.63000000  0.86000000  0.50000000  1
  Pt  Pt169  1  0.63000000  0.96000000  0.50000000  1
  Pt  Pt170  1  0.73000000  0.06000000  0.50000000  1
  Pt  Pt171  1  0.73000000  0.16000000  0.50000000  1
  Pt  Pt172  1  0.73000000  0.26000000  0.50000000  1
  Pt  Pt173  1  0.73000000  0.36000000  0.50000000  1
  Pt  Pt174  1  0.73000000  0.46000000  0.50000000  1
  Pt  Pt175  1  0.73000000  0.56000000  0.50000000  1
  Pt  Pt176  1  0.73000000  0.66000000  0.50000000  1
  Pt  Pt177  1  0.73000000  0.76000000  0.50000000  1
  Pt  Pt178  1  0.73000000  0.86000000  0.50000000  1
  Pt  Pt179  1  0.73000000  0.96000000  0.50000000  1
  Pt  Pt180  1  0.83000000  0.06000000  0.50000000  1
  Pt  Pt181  1  0.83000000  0.16000000  0.50000000  1
  Pt  Pt182  1  0.83000000  0.26000000  0.50000000  1
  Pt  Pt183  1  0.83000000  0.36000000  0.50000000  1
  Pt  Pt184  1  0.83000000  0.46000000  0.50000000  1
  Pt  Pt185  1  0.83000000  0.56000000  0.50000000  1
  Pt  Pt186  1  0.83000000  0.66000000  0.50000000  1
  Pt  Pt187  1  0.83000000  0.76000000  0.50000000  1
  Pt  Pt188  1  0.83000000  0.86000000  0.50000000  1
  Pt  Pt189  1  0.83000000  0.96000000  0.50000000  1
  Pt  Pt190  1  0.93000000  0.06000000  0.50000000  1
  Pt  Pt191  1  0.93000000  0.16000000  0.50000000  1
  Pt  Pt192  1  0.93000000  0.26000000  0.50000000  1
  Pt  Pt193  1  0.93000000  0.36000000  0.50000000  1
  Pt  Pt194  1  0.93000000  0.46000000  0.50000000  1
  Pt  Pt195  1  0.93000000  0.56000000  0.50000000  1
  Pt  Pt196  1  0.93000000  0.66000000  0.50000000  1
  Pt  Pt197  1  0.93000000  0.76000000  0.50000000  1
  Pt  Pt198  1  0.93000000  0.86000000  0.50000000  1
  Pt  Pt199  1  0.93000000  0.96000000  0.50000000  1
  Pt  Pt200  1  0.06000000  0.09000000  0.60000000  1
  Pt  Pt201  1  0.06000000  0.19000000  0.60000000  1
  Pt  Pt202  1  0.06000000  0.29000000  0.60000000  1
  Pt  Pt203  1  0.06000000  0.39000000  0.60000000  1
  Pt  Pt204  1  0.06000000  0.49000000  0.60000000  1
  Pt  Pt205  1  0.06000000  0.59000000  0.60000000  1
  Pt  Pt206  1  0.06000000  0.69000000  0.60000000  1
  Pt  Pt207  1  0.06000000  0.79000000  0.60000000  1
  Pt  Pt208  1  0.06000000  0.89000000  0.60000000  1
  Pt  Pt209  1  0.06000000  0.99000000  0.60000000  1
  Pt  Pt210  1  0.16000000  0.09000000  0.60000000  1
  Pt  Pt211  1  0.16000000  0.19000000  0.60000000  1
  Pt  Pt212  1  0.16000000  0.29000000  0.60000000  1
  Pt  Pt213  1  0.16000000  0.39000000  0.60000000  1
  Pt  Pt214  1  0.16000000  0.49000000  0.60000000  1
  Pt  Pt215  1  0.16000000  0.59000000  0.60000000  1
  Pt  Pt216  1  0.16000000  0.69000000  0.60000000  1
  Pt  Pt217  1  0.16000000  0.79000000  0.60000000  1
  Pt  Pt218  1  0.16000000  0.89000000  0.60000000  1
  Pt  Pt219  1  0.16000000  0.99000000  0.60000000  1
  Pt  Pt220  1  0.26000000  0.09000000  0.60000000  1
  Pt  Pt221  1  0.26000000  0.19000000  0.60000000  1
  Pt  Pt222  1  0.26000000  0.29000000  0.60000000  1
  Pt  Pt223  1  0.26000000  0.39000000  0.60000000  1
  Pt  Pt224  1  0.26000000  0.49000000  0.60000000  1
  Pt  Pt225  1  0.26000000  0.59000000  0.60000000  1
  Pt  Pt226  1  0.26000000  0.69000000  0.60000000  1
  Pt  Pt227  1  0.26000000  0.79000000  0.60000000  1
  Pt  Pt228  1  0.26000000  0.89000000  0.60000000  1
  Pt  Pt229  1  0.26000000  0.99000000  0.60000000  1
  Pt  Pt230  1  0.36000000  0.09000000  0.60000000  1
  Pt  Pt231  1  0.36000000  0.19000000  0.60000000  1
  Pt  Pt232  1  0.36000000  0.29000000  0.60000000  1
  Pt  Pt233  1  0.36000000  0.39000000  0.60000000  1
  Pt  Pt234  1  0.36000000  0.49000000  0.60000000  1
  Pt  Pt235  1  0.36000000  0.59000000  0.60000000  1
  Pt  Pt236  1  0.36000000  0.69000000  0.60000000  1
  Pt  Pt237  1  0.36000000  0.79000000  0.60000000  1
  Pt  Pt238  1  0.36000000  0.89000000  0.60000000  1
  Pt  Pt239  1  0.36000000  0.99000000  0.60000000  1
  Pt  Pt240  1  0.46000000  0.09000000  0.60000000  1
  Pt  Pt241  1  0.46000000  0.19000000  0.60000000  1
  Pt  Pt242  1  0.46000000  0.29000000  0.60000000  1
  Pt  Pt243  1  0.46000000  0.39000000  0.60000000  1
  Pt  Pt244  1  0.46000000  0.49000000  0.60000000  1
  Pt  Pt245  1  0.46000000  0.59000000  0.60000000  1
  Pt  Pt246  1  0.46000000  0.69000000  0.60000000  1
  Pt  Pt247  1  0.46000000  0.79000000  0.60000000  1
  Pt  Pt248  1  0.46000000  0.89000000  0.60000000  1
  Pt  Pt249  1  0.46000000  0.99000000  0.60000000  1
  Pt  Pt250  1  0.56000000  0.09000000  0.60000000  1
  Pt  Pt251  1  0.56000000  0.19000000  0.60000000  1
  Pt  Pt252  1  0.56000000  0.29000000  0.60000000  1
  Pt  Pt253  1  0.56000000  0.39000000  0.60000000  1
  Pt  Pt254  1  0.56000000  0.49000000  0.60000000  1
  Pt  Pt255  1  0.56000000  0.59000000  0.60000000  1
  Pt  Pt256  1  0.56000000  0.69000000  0.60000000  1
  Pt  Pt257  1  0.56000000  0.79000000  0.60000000  1
  Pt  Pt258  1  0.56000000  0.89000000  0.60000000  1
  Pt  Pt259  1  0.56000000  0.99000000  0.60000000  1
  Pt  Pt260  1  0.66000000  0.09000000  0.60000000  1
  Pt  Pt261  1  0.66000000  0.19000000  0.60000000  1
  Pt  Pt262  1  0.66000000  0.29000000  0.60000000  1
  Pt  Pt263  1  0.66000000  0.39000000  0.60000000  1
  Pt  Pt264  1  0.66000000  0.49000000  0.60000000  1
  Pt  Pt265  1  0.66000000  0.59000000  0.60000000  1
  Pt  Pt266  1  0.66000000  0.69000000  0.60000000  1
  Pt  Pt267  1  0.66000000  0.79000000  0.60000000  1
  Pt  Pt268  1  0.66000000  0.89000000  0.60000000  1
  Pt  Pt269  1  0.66000000  0.99000000  0.60000000  1
  Pt  Pt270  1  0.76000000  0.09000000  0.60000000  1
  Pt  Pt271  1  0.76000000  0.19000000  0.60000000  1
  Pt  Pt272  1  0.76000000  0.29000000  0.60000000  1
  Pt  Pt273  1  0.76000000  0.39000000  0.60000000  1
  Pt  Pt274  1  0.76000000  0.49000000  0.60000000  1
  Pt  Pt275  1  0.76000000  0.59000000  0.60000000  1
  Pt  Pt276  1  0.76000000  0.69000000  0.60000000  1
  Pt  Pt277  1  0.76000000  0.79000000  0.60000000  1
  Pt  Pt278  1  0.76000000  0.89000000  0.60000000  1
  Pt  Pt279  1  0.76000000  0.99000000  0.60000000  1
  Pt  Pt280  1  0.86000000  0.09000000  0.60000000  1
  Pt  Pt281  1  0.86000000  0.19000000  0.60000000  1
  Pt  Pt282  1  0.86000000  0.29000000  0.60000000  1
  Pt  Pt283  1  0.86000000  0.39000000  0.60000000  1
  Pt  Pt284  1  0.86000000  0.49000000  0.60000000  1
  Pt  Pt285  1  0.86000000  0.59000000  0.60000000  1
  Pt  Pt286  1  0.86000000  0.69000000  0.60000000  1
  Pt  Pt287  1  0.86000000  0.79000000  0.60000000  1
  Pt  Pt288  1  0.86000000  0.89000000  0.60000000  1
  Pt  Pt289  1  0.86000000  0.99000000  0.60000000  1
  Pt  Pt290  1  0.96000000  0.09000000  0.60000000  1
  Pt  Pt291  1  0.96000000  0.19000000  0.60000000  1
  Pt  Pt292  1  0.96000000  0.29000000  0.60000000  1
  Pt  Pt293  1  0.96000000  0.39000000  0.60000000  1
  Pt  Pt294  1  0.96000000  0.49000000  0.60000000  1
  Pt  Pt295  1  0.96000000  0.59000000  0.60000000  1
  Pt  Pt296  1  0.96000000  0.69000000  0.60000000  1
  Pt  Pt297  1  0.96000000  0.79000000  0.60000000  1
  Pt  Pt298  1  0.96000000  0.89000000  0.60000000  1
  Pt  Pt299  1  0.96000000  0.99000000  0.60000000  1
