# generated using pymatgen
data_Pt
_symmetry_space_group_name_H-M   'P 1'
_cell_length_a   2.77405061
_cell_length_b   2.77405061
_cell_length_c   22.70658288
_cell_angle_alpha   86.49792301
_cell_angle_beta   86.49792301
_cell_angle_gamma   60.00000000
_symmetry_Int_Tables_number   1
_chemical_formula_structural   Pt
_chemical_formula_sum   Pt3
_cell_volume   150.94827141
_cell_formula_units_Z   3
loop_
 _symmetry_equiv_pos_site_id
 _symmetry_equiv_pos_as_xyz
  1  'x, y, z'
loop_
 _atom_site_type_symbol
 _atom_site_label
 _atom_site_symmetry_multiplicity
 _atom_site_fract_x
 _atom_site_fract_y
 _atom_site_fract_z
 _atom_site_occupancy
  Pt  Pt0  1  1.00000000  0.30000000  0.40000000  1
  Pt  Pt1  1  0.30000000  0.60000000  0.50000000  1
  Pt  Pt2  1  0.60000000  0.90000000  0.60000000  1
